<routes><vType id="car0" accel="0.8" decel="4.5" length="5.0" minGap="2.5" maxSpeed="55.56" sigma="0.5" tau="1.0" color="yellow" /><flow id="flow_edge_x1-y4_x1-y3_edge_x2-y4_x2-y3" begin="0" end="1000" from="edge_x1-y4_x1-y3" to="edge_x2-y3_x2-y4" probability="0.0025" type="car0" /><flow id="flow_edge_x1-y4_x1-y3_edge_x3-y4_x3-y3" begin="0" end="1000" from="edge_x1-y4_x1-y3" to="edge_x3-y3_x3-y4" probability="0.0025" type="car0" /><flow id="flow_edge_x1-y4_x1-y3_edge_x4-y3_x3-y3" begin="0" end="1000" from="edge_x1-y4_x1-y3" to="edge_x3-y3_x4-y3" probability="0.0025" type="car0" /><flow id="flow_edge_x1-y4_x1-y3_edge_x4-y2_x3-y2" begin="0" end="1000" from="edge_x1-y4_x1-y3" to="edge_x3-y2_x4-y2" probability="0.0025" type="car0" /><flow id="flow_edge_x1-y4_x1-y3_edge_x4-y1_x3-y1" begin="0" end="1000" from="edge_x1-y4_x1-y3" to="edge_x3-y1_x4-y1" probability="0.0025" type="car0" /><flow id="flow_edge_x1-y4_x1-y3_edge_x3-y0_x3-y1" begin="0" end="1000" from="edge_x1-y4_x1-y3" to="edge_x3-y1_x3-y0" probability="0.0025" type="car0" /><flow id="flow_edge_x1-y4_x1-y3_edge_x2-y0_x2-y1" begin="0" end="1000" from="edge_x1-y4_x1-y3" to="edge_x2-y1_x2-y0" probability="0.0025" type="car0" /><flow id="flow_edge_x1-y4_x1-y3_edge_x1-y0_x1-y1" begin="0" end="1000" from="edge_x1-y4_x1-y3" to="edge_x1-y1_x1-y0" probability="0.0025" type="car0" /><flow id="flow_edge_x1-y4_x1-y3_edge_x0-y1_x1-y1" begin="0" end="1000" from="edge_x1-y4_x1-y3" to="edge_x1-y1_x0-y1" probability="0.0025" type="car0" /><flow id="flow_edge_x1-y4_x1-y3_edge_x0-y2_x1-y2" begin="0" end="1000" from="edge_x1-y4_x1-y3" to="edge_x1-y2_x0-y2" probability="0.0025" type="car0" /><flow id="flow_edge_x1-y4_x1-y3_edge_x0-y3_x1-y3" begin="0" end="1000" from="edge_x1-y4_x1-y3" to="edge_x1-y3_x0-y3" probability="0.0025" type="car0" /><flow id="flow_edge_x2-y4_x2-y3_edge_x1-y4_x1-y3" begin="0" end="1000" from="edge_x2-y4_x2-y3" to="edge_x1-y3_x1-y4" probability="0.0025" type="car0" /><flow id="flow_edge_x2-y4_x2-y3_edge_x3-y4_x3-y3" begin="0" end="1000" from="edge_x2-y4_x2-y3" to="edge_x3-y3_x3-y4" probability="0.0025" type="car0" /><flow id="flow_edge_x2-y4_x2-y3_edge_x4-y3_x3-y3" begin="0" end="1000" from="edge_x2-y4_x2-y3" to="edge_x3-y3_x4-y3" probability="0.0025" type="car0" /><flow id="flow_edge_x2-y4_x2-y3_edge_x4-y2_x3-y2" begin="0" end="1000" from="edge_x2-y4_x2-y3" to="edge_x3-y2_x4-y2" probability="0.0025" type="car0" /><flow id="flow_edge_x2-y4_x2-y3_edge_x4-y1_x3-y1" begin="0" end="1000" from="edge_x2-y4_x2-y3" to="edge_x3-y1_x4-y1" probability="0.0025" type="car0" /><flow id="flow_edge_x2-y4_x2-y3_edge_x3-y0_x3-y1" begin="0" end="1000" from="edge_x2-y4_x2-y3" to="edge_x3-y1_x3-y0" probability="0.0025" type="car0" /><flow id="flow_edge_x2-y4_x2-y3_edge_x2-y0_x2-y1" begin="0" end="1000" from="edge_x2-y4_x2-y3" to="edge_x2-y1_x2-y0" probability="0.0025" type="car0" /><flow id="flow_edge_x2-y4_x2-y3_edge_x1-y0_x1-y1" begin="0" end="1000" from="edge_x2-y4_x2-y3" to="edge_x1-y1_x1-y0" probability="0.0025" type="car0" /><flow id="flow_edge_x2-y4_x2-y3_edge_x0-y1_x1-y1" begin="0" end="1000" from="edge_x2-y4_x2-y3" to="edge_x1-y1_x0-y1" probability="0.0025" type="car0" /><flow id="flow_edge_x2-y4_x2-y3_edge_x0-y2_x1-y2" begin="0" end="1000" from="edge_x2-y4_x2-y3" to="edge_x1-y2_x0-y2" probability="0.0025" type="car0" /><flow id="flow_edge_x2-y4_x2-y3_edge_x0-y3_x1-y3" begin="0" end="1000" from="edge_x2-y4_x2-y3" to="edge_x1-y3_x0-y3" probability="0.0025" type="car0" /><flow id="flow_edge_x3-y4_x3-y3_edge_x1-y4_x1-y3" begin="0" end="1000" from="edge_x3-y4_x3-y3" to="edge_x1-y3_x1-y4" probability="0.0025" type="car0" /><flow id="flow_edge_x3-y4_x3-y3_edge_x2-y4_x2-y3" begin="0" end="1000" from="edge_x3-y4_x3-y3" to="edge_x2-y3_x2-y4" probability="0.0025" type="car0" /><flow id="flow_edge_x3-y4_x3-y3_edge_x4-y3_x3-y3" begin="0" end="1000" from="edge_x3-y4_x3-y3" to="edge_x3-y3_x4-y3" probability="0.0025" type="car0" /><flow id="flow_edge_x3-y4_x3-y3_edge_x4-y2_x3-y2" begin="0" end="1000" from="edge_x3-y4_x3-y3" to="edge_x3-y2_x4-y2" probability="0.0025" type="car0" /><flow id="flow_edge_x3-y4_x3-y3_edge_x4-y1_x3-y1" begin="0" end="1000" from="edge_x3-y4_x3-y3" to="edge_x3-y1_x4-y1" probability="0.0025" type="car0" /><flow id="flow_edge_x3-y4_x3-y3_edge_x3-y0_x3-y1" begin="0" end="1000" from="edge_x3-y4_x3-y3" to="edge_x3-y1_x3-y0" probability="0.0025" type="car0" /><flow id="flow_edge_x3-y4_x3-y3_edge_x2-y0_x2-y1" begin="0" end="1000" from="edge_x3-y4_x3-y3" to="edge_x2-y1_x2-y0" probability="0.0025" type="car0" /><flow id="flow_edge_x3-y4_x3-y3_edge_x1-y0_x1-y1" begin="0" end="1000" from="edge_x3-y4_x3-y3" to="edge_x1-y1_x1-y0" probability="0.0025" type="car0" /><flow id="flow_edge_x3-y4_x3-y3_edge_x0-y1_x1-y1" begin="0" end="1000" from="edge_x3-y4_x3-y3" to="edge_x1-y1_x0-y1" probability="0.0025" type="car0" /><flow id="flow_edge_x3-y4_x3-y3_edge_x0-y2_x1-y2" begin="0" end="1000" from="edge_x3-y4_x3-y3" to="edge_x1-y2_x0-y2" probability="0.0025" type="car0" /><flow id="flow_edge_x3-y4_x3-y3_edge_x0-y3_x1-y3" begin="0" end="1000" from="edge_x3-y4_x3-y3" to="edge_x1-y3_x0-y3" probability="0.0025" type="car0" /><flow id="flow_edge_x4-y3_x3-y3_edge_x1-y4_x1-y3" begin="0" end="1000" from="edge_x4-y3_x3-y3" to="edge_x1-y3_x1-y4" probability="0.0025" type="car0" /><flow id="flow_edge_x4-y3_x3-y3_edge_x2-y4_x2-y3" begin="0" end="1000" from="edge_x4-y3_x3-y3" to="edge_x2-y3_x2-y4" probability="0.0025" type="car0" /><flow id="flow_edge_x4-y3_x3-y3_edge_x3-y4_x3-y3" begin="0" end="1000" from="edge_x4-y3_x3-y3" to="edge_x3-y3_x3-y4" probability="0.0025" type="car0" /><flow id="flow_edge_x4-y3_x3-y3_edge_x4-y2_x3-y2" begin="0" end="1000" from="edge_x4-y3_x3-y3" to="edge_x3-y2_x4-y2" probability="0.0025" type="car0" /><flow id="flow_edge_x4-y3_x3-y3_edge_x4-y1_x3-y1" begin="0" end="1000" from="edge_x4-y3_x3-y3" to="edge_x3-y1_x4-y1" probability="0.0025" type="car0" /><flow id="flow_edge_x4-y3_x3-y3_edge_x3-y0_x3-y1" begin="0" end="1000" from="edge_x4-y3_x3-y3" to="edge_x3-y1_x3-y0" probability="0.0025" type="car0" /><flow id="flow_edge_x4-y3_x3-y3_edge_x2-y0_x2-y1" begin="0" end="1000" from="edge_x4-y3_x3-y3" to="edge_x2-y1_x2-y0" probability="0.0025" type="car0" /><flow id="flow_edge_x4-y3_x3-y3_edge_x1-y0_x1-y1" begin="0" end="1000" from="edge_x4-y3_x3-y3" to="edge_x1-y1_x1-y0" probability="0.0025" type="car0" /><flow id="flow_edge_x4-y3_x3-y3_edge_x0-y1_x1-y1" begin="0" end="1000" from="edge_x4-y3_x3-y3" to="edge_x1-y1_x0-y1" probability="0.0025" type="car0" /><flow id="flow_edge_x4-y3_x3-y3_edge_x0-y2_x1-y2" begin="0" end="1000" from="edge_x4-y3_x3-y3" to="edge_x1-y2_x0-y2" probability="0.0025" type="car0" /><flow id="flow_edge_x4-y3_x3-y3_edge_x0-y3_x1-y3" begin="0" end="1000" from="edge_x4-y3_x3-y3" to="edge_x1-y3_x0-y3" probability="0.0025" type="car0" /><flow id="flow_edge_x4-y2_x3-y2_edge_x1-y4_x1-y3" begin="0" end="1000" from="edge_x4-y2_x3-y2" to="edge_x1-y3_x1-y4" probability="0.0025" type="car0" /><flow id="flow_edge_x4-y2_x3-y2_edge_x2-y4_x2-y3" begin="0" end="1000" from="edge_x4-y2_x3-y2" to="edge_x2-y3_x2-y4" probability="0.0025" type="car0" /><flow id="flow_edge_x4-y2_x3-y2_edge_x3-y4_x3-y3" begin="0" end="1000" from="edge_x4-y2_x3-y2" to="edge_x3-y3_x3-y4" probability="0.0025" type="car0" /><flow id="flow_edge_x4-y2_x3-y2_edge_x4-y3_x3-y3" begin="0" end="1000" from="edge_x4-y2_x3-y2" to="edge_x3-y3_x4-y3" probability="0.0025" type="car0" /><flow id="flow_edge_x4-y2_x3-y2_edge_x4-y1_x3-y1" begin="0" end="1000" from="edge_x4-y2_x3-y2" to="edge_x3-y1_x4-y1" probability="0.0025" type="car0" /><flow id="flow_edge_x4-y2_x3-y2_edge_x3-y0_x3-y1" begin="0" end="1000" from="edge_x4-y2_x3-y2" to="edge_x3-y1_x3-y0" probability="0.0025" type="car0" /><flow id="flow_edge_x4-y2_x3-y2_edge_x2-y0_x2-y1" begin="0" end="1000" from="edge_x4-y2_x3-y2" to="edge_x2-y1_x2-y0" probability="0.0025" type="car0" /><flow id="flow_edge_x4-y2_x3-y2_edge_x1-y0_x1-y1" begin="0" end="1000" from="edge_x4-y2_x3-y2" to="edge_x1-y1_x1-y0" probability="0.0025" type="car0" /><flow id="flow_edge_x4-y2_x3-y2_edge_x0-y1_x1-y1" begin="0" end="1000" from="edge_x4-y2_x3-y2" to="edge_x1-y1_x0-y1" probability="0.0025" type="car0" /><flow id="flow_edge_x4-y2_x3-y2_edge_x0-y2_x1-y2" begin="0" end="1000" from="edge_x4-y2_x3-y2" to="edge_x1-y2_x0-y2" probability="0.0025" type="car0" /><flow id="flow_edge_x4-y2_x3-y2_edge_x0-y3_x1-y3" begin="0" end="1000" from="edge_x4-y2_x3-y2" to="edge_x1-y3_x0-y3" probability="0.0025" type="car0" /><flow id="flow_edge_x4-y1_x3-y1_edge_x1-y4_x1-y3" begin="0" end="1000" from="edge_x4-y1_x3-y1" to="edge_x1-y3_x1-y4" probability="0.0025" type="car0" /><flow id="flow_edge_x4-y1_x3-y1_edge_x2-y4_x2-y3" begin="0" end="1000" from="edge_x4-y1_x3-y1" to="edge_x2-y3_x2-y4" probability="0.0025" type="car0" /><flow id="flow_edge_x4-y1_x3-y1_edge_x3-y4_x3-y3" begin="0" end="1000" from="edge_x4-y1_x3-y1" to="edge_x3-y3_x3-y4" probability="0.0025" type="car0" /><flow id="flow_edge_x4-y1_x3-y1_edge_x4-y3_x3-y3" begin="0" end="1000" from="edge_x4-y1_x3-y1" to="edge_x3-y3_x4-y3" probability="0.0025" type="car0" /><flow id="flow_edge_x4-y1_x3-y1_edge_x4-y2_x3-y2" begin="0" end="1000" from="edge_x4-y1_x3-y1" to="edge_x3-y2_x4-y2" probability="0.0025" type="car0" /><flow id="flow_edge_x4-y1_x3-y1_edge_x3-y0_x3-y1" begin="0" end="1000" from="edge_x4-y1_x3-y1" to="edge_x3-y1_x3-y0" probability="0.0025" type="car0" /><flow id="flow_edge_x4-y1_x3-y1_edge_x2-y0_x2-y1" begin="0" end="1000" from="edge_x4-y1_x3-y1" to="edge_x2-y1_x2-y0" probability="0.0025" type="car0" /><flow id="flow_edge_x4-y1_x3-y1_edge_x1-y0_x1-y1" begin="0" end="1000" from="edge_x4-y1_x3-y1" to="edge_x1-y1_x1-y0" probability="0.0025" type="car0" /><flow id="flow_edge_x4-y1_x3-y1_edge_x0-y1_x1-y1" begin="0" end="1000" from="edge_x4-y1_x3-y1" to="edge_x1-y1_x0-y1" probability="0.0025" type="car0" /><flow id="flow_edge_x4-y1_x3-y1_edge_x0-y2_x1-y2" begin="0" end="1000" from="edge_x4-y1_x3-y1" to="edge_x1-y2_x0-y2" probability="0.0025" type="car0" /><flow id="flow_edge_x4-y1_x3-y1_edge_x0-y3_x1-y3" begin="0" end="1000" from="edge_x4-y1_x3-y1" to="edge_x1-y3_x0-y3" probability="0.0025" type="car0" /><flow id="flow_edge_x3-y0_x3-y1_edge_x1-y4_x1-y3" begin="0" end="1000" from="edge_x3-y0_x3-y1" to="edge_x1-y3_x1-y4" probability="0.0025" type="car0" /><flow id="flow_edge_x3-y0_x3-y1_edge_x2-y4_x2-y3" begin="0" end="1000" from="edge_x3-y0_x3-y1" to="edge_x2-y3_x2-y4" probability="0.0025" type="car0" /><flow id="flow_edge_x3-y0_x3-y1_edge_x3-y4_x3-y3" begin="0" end="1000" from="edge_x3-y0_x3-y1" to="edge_x3-y3_x3-y4" probability="0.0025" type="car0" /><flow id="flow_edge_x3-y0_x3-y1_edge_x4-y3_x3-y3" begin="0" end="1000" from="edge_x3-y0_x3-y1" to="edge_x3-y3_x4-y3" probability="0.0025" type="car0" /><flow id="flow_edge_x3-y0_x3-y1_edge_x4-y2_x3-y2" begin="0" end="1000" from="edge_x3-y0_x3-y1" to="edge_x3-y2_x4-y2" probability="0.0025" type="car0" /><flow id="flow_edge_x3-y0_x3-y1_edge_x4-y1_x3-y1" begin="0" end="1000" from="edge_x3-y0_x3-y1" to="edge_x3-y1_x4-y1" probability="0.0025" type="car0" /><flow id="flow_edge_x3-y0_x3-y1_edge_x2-y0_x2-y1" begin="0" end="1000" from="edge_x3-y0_x3-y1" to="edge_x2-y1_x2-y0" probability="0.0025" type="car0" /><flow id="flow_edge_x3-y0_x3-y1_edge_x1-y0_x1-y1" begin="0" end="1000" from="edge_x3-y0_x3-y1" to="edge_x1-y1_x1-y0" probability="0.0025" type="car0" /><flow id="flow_edge_x3-y0_x3-y1_edge_x0-y1_x1-y1" begin="0" end="1000" from="edge_x3-y0_x3-y1" to="edge_x1-y1_x0-y1" probability="0.0025" type="car0" /><flow id="flow_edge_x3-y0_x3-y1_edge_x0-y2_x1-y2" begin="0" end="1000" from="edge_x3-y0_x3-y1" to="edge_x1-y2_x0-y2" probability="0.0025" type="car0" /><flow id="flow_edge_x3-y0_x3-y1_edge_x0-y3_x1-y3" begin="0" end="1000" from="edge_x3-y0_x3-y1" to="edge_x1-y3_x0-y3" probability="0.0025" type="car0" /><flow id="flow_edge_x2-y0_x2-y1_edge_x1-y4_x1-y3" begin="0" end="1000" from="edge_x2-y0_x2-y1" to="edge_x1-y3_x1-y4" probability="0.0025" type="car0" /><flow id="flow_edge_x2-y0_x2-y1_edge_x2-y4_x2-y3" begin="0" end="1000" from="edge_x2-y0_x2-y1" to="edge_x2-y3_x2-y4" probability="0.0025" type="car0" /><flow id="flow_edge_x2-y0_x2-y1_edge_x3-y4_x3-y3" begin="0" end="1000" from="edge_x2-y0_x2-y1" to="edge_x3-y3_x3-y4" probability="0.0025" type="car0" /><flow id="flow_edge_x2-y0_x2-y1_edge_x4-y3_x3-y3" begin="0" end="1000" from="edge_x2-y0_x2-y1" to="edge_x3-y3_x4-y3" probability="0.0025" type="car0" /><flow id="flow_edge_x2-y0_x2-y1_edge_x4-y2_x3-y2" begin="0" end="1000" from="edge_x2-y0_x2-y1" to="edge_x3-y2_x4-y2" probability="0.0025" type="car0" /><flow id="flow_edge_x2-y0_x2-y1_edge_x4-y1_x3-y1" begin="0" end="1000" from="edge_x2-y0_x2-y1" to="edge_x3-y1_x4-y1" probability="0.0025" type="car0" /><flow id="flow_edge_x2-y0_x2-y1_edge_x3-y0_x3-y1" begin="0" end="1000" from="edge_x2-y0_x2-y1" to="edge_x3-y1_x3-y0" probability="0.0025" type="car0" /><flow id="flow_edge_x2-y0_x2-y1_edge_x1-y0_x1-y1" begin="0" end="1000" from="edge_x2-y0_x2-y1" to="edge_x1-y1_x1-y0" probability="0.0025" type="car0" /><flow id="flow_edge_x2-y0_x2-y1_edge_x0-y1_x1-y1" begin="0" end="1000" from="edge_x2-y0_x2-y1" to="edge_x1-y1_x0-y1" probability="0.0025" type="car0" /><flow id="flow_edge_x2-y0_x2-y1_edge_x0-y2_x1-y2" begin="0" end="1000" from="edge_x2-y0_x2-y1" to="edge_x1-y2_x0-y2" probability="0.0025" type="car0" /><flow id="flow_edge_x2-y0_x2-y1_edge_x0-y3_x1-y3" begin="0" end="1000" from="edge_x2-y0_x2-y1" to="edge_x1-y3_x0-y3" probability="0.0025" type="car0" /><flow id="flow_edge_x1-y0_x1-y1_edge_x1-y4_x1-y3" begin="0" end="1000" from="edge_x1-y0_x1-y1" to="edge_x1-y3_x1-y4" probability="0.0025" type="car0" /><flow id="flow_edge_x1-y0_x1-y1_edge_x2-y4_x2-y3" begin="0" end="1000" from="edge_x1-y0_x1-y1" to="edge_x2-y3_x2-y4" probability="0.0025" type="car0" /><flow id="flow_edge_x1-y0_x1-y1_edge_x3-y4_x3-y3" begin="0" end="1000" from="edge_x1-y0_x1-y1" to="edge_x3-y3_x3-y4" probability="0.0025" type="car0" /><flow id="flow_edge_x1-y0_x1-y1_edge_x4-y3_x3-y3" begin="0" end="1000" from="edge_x1-y0_x1-y1" to="edge_x3-y3_x4-y3" probability="0.0025" type="car0" /><flow id="flow_edge_x1-y0_x1-y1_edge_x4-y2_x3-y2" begin="0" end="1000" from="edge_x1-y0_x1-y1" to="edge_x3-y2_x4-y2" probability="0.0025" type="car0" /><flow id="flow_edge_x1-y0_x1-y1_edge_x4-y1_x3-y1" begin="0" end="1000" from="edge_x1-y0_x1-y1" to="edge_x3-y1_x4-y1" probability="0.0025" type="car0" /><flow id="flow_edge_x1-y0_x1-y1_edge_x3-y0_x3-y1" begin="0" end="1000" from="edge_x1-y0_x1-y1" to="edge_x3-y1_x3-y0" probability="0.0025" type="car0" /><flow id="flow_edge_x1-y0_x1-y1_edge_x2-y0_x2-y1" begin="0" end="1000" from="edge_x1-y0_x1-y1" to="edge_x2-y1_x2-y0" probability="0.0025" type="car0" /><flow id="flow_edge_x1-y0_x1-y1_edge_x0-y1_x1-y1" begin="0" end="1000" from="edge_x1-y0_x1-y1" to="edge_x1-y1_x0-y1" probability="0.0025" type="car0" /><flow id="flow_edge_x1-y0_x1-y1_edge_x0-y2_x1-y2" begin="0" end="1000" from="edge_x1-y0_x1-y1" to="edge_x1-y2_x0-y2" probability="0.0025" type="car0" /><flow id="flow_edge_x1-y0_x1-y1_edge_x0-y3_x1-y3" begin="0" end="1000" from="edge_x1-y0_x1-y1" to="edge_x1-y3_x0-y3" probability="0.0025" type="car0" /><flow id="flow_edge_x0-y1_x1-y1_edge_x1-y4_x1-y3" begin="0" end="1000" from="edge_x0-y1_x1-y1" to="edge_x1-y3_x1-y4" probability="0.0025" type="car0" /><flow id="flow_edge_x0-y1_x1-y1_edge_x2-y4_x2-y3" begin="0" end="1000" from="edge_x0-y1_x1-y1" to="edge_x2-y3_x2-y4" probability="0.0025" type="car0" /><flow id="flow_edge_x0-y1_x1-y1_edge_x3-y4_x3-y3" begin="0" end="1000" from="edge_x0-y1_x1-y1" to="edge_x3-y3_x3-y4" probability="0.0025" type="car0" /><flow id="flow_edge_x0-y1_x1-y1_edge_x4-y3_x3-y3" begin="0" end="1000" from="edge_x0-y1_x1-y1" to="edge_x3-y3_x4-y3" probability="0.0025" type="car0" /><flow id="flow_edge_x0-y1_x1-y1_edge_x4-y2_x3-y2" begin="0" end="1000" from="edge_x0-y1_x1-y1" to="edge_x3-y2_x4-y2" probability="0.0025" type="car0" /><flow id="flow_edge_x0-y1_x1-y1_edge_x4-y1_x3-y1" begin="0" end="1000" from="edge_x0-y1_x1-y1" to="edge_x3-y1_x4-y1" probability="0.0025" type="car0" /><flow id="flow_edge_x0-y1_x1-y1_edge_x3-y0_x3-y1" begin="0" end="1000" from="edge_x0-y1_x1-y1" to="edge_x3-y1_x3-y0" probability="0.0025" type="car0" /><flow id="flow_edge_x0-y1_x1-y1_edge_x2-y0_x2-y1" begin="0" end="1000" from="edge_x0-y1_x1-y1" to="edge_x2-y1_x2-y0" probability="0.0025" type="car0" /><flow id="flow_edge_x0-y1_x1-y1_edge_x1-y0_x1-y1" begin="0" end="1000" from="edge_x0-y1_x1-y1" to="edge_x1-y1_x1-y0" probability="0.0025" type="car0" /><flow id="flow_edge_x0-y1_x1-y1_edge_x0-y2_x1-y2" begin="0" end="1000" from="edge_x0-y1_x1-y1" to="edge_x1-y2_x0-y2" probability="0.0025" type="car0" /><flow id="flow_edge_x0-y1_x1-y1_edge_x0-y3_x1-y3" begin="0" end="1000" from="edge_x0-y1_x1-y1" to="edge_x1-y3_x0-y3" probability="0.0025" type="car0" /><flow id="flow_edge_x0-y2_x1-y2_edge_x1-y4_x1-y3" begin="0" end="1000" from="edge_x0-y2_x1-y2" to="edge_x1-y3_x1-y4" probability="0.0025" type="car0" /><flow id="flow_edge_x0-y2_x1-y2_edge_x2-y4_x2-y3" begin="0" end="1000" from="edge_x0-y2_x1-y2" to="edge_x2-y3_x2-y4" probability="0.0025" type="car0" /><flow id="flow_edge_x0-y2_x1-y2_edge_x3-y4_x3-y3" begin="0" end="1000" from="edge_x0-y2_x1-y2" to="edge_x3-y3_x3-y4" probability="0.0025" type="car0" /><flow id="flow_edge_x0-y2_x1-y2_edge_x4-y3_x3-y3" begin="0" end="1000" from="edge_x0-y2_x1-y2" to="edge_x3-y3_x4-y3" probability="0.0025" type="car0" /><flow id="flow_edge_x0-y2_x1-y2_edge_x4-y2_x3-y2" begin="0" end="1000" from="edge_x0-y2_x1-y2" to="edge_x3-y2_x4-y2" probability="0.0025" type="car0" /><flow id="flow_edge_x0-y2_x1-y2_edge_x4-y1_x3-y1" begin="0" end="1000" from="edge_x0-y2_x1-y2" to="edge_x3-y1_x4-y1" probability="0.0025" type="car0" /><flow id="flow_edge_x0-y2_x1-y2_edge_x3-y0_x3-y1" begin="0" end="1000" from="edge_x0-y2_x1-y2" to="edge_x3-y1_x3-y0" probability="0.0025" type="car0" /><flow id="flow_edge_x0-y2_x1-y2_edge_x2-y0_x2-y1" begin="0" end="1000" from="edge_x0-y2_x1-y2" to="edge_x2-y1_x2-y0" probability="0.0025" type="car0" /><flow id="flow_edge_x0-y2_x1-y2_edge_x1-y0_x1-y1" begin="0" end="1000" from="edge_x0-y2_x1-y2" to="edge_x1-y1_x1-y0" probability="0.0025" type="car0" /><flow id="flow_edge_x0-y2_x1-y2_edge_x0-y1_x1-y1" begin="0" end="1000" from="edge_x0-y2_x1-y2" to="edge_x1-y1_x0-y1" probability="0.0025" type="car0" /><flow id="flow_edge_x0-y2_x1-y2_edge_x0-y3_x1-y3" begin="0" end="1000" from="edge_x0-y2_x1-y2" to="edge_x1-y3_x0-y3" probability="0.0025" type="car0" /><flow id="flow_edge_x0-y3_x1-y3_edge_x1-y4_x1-y3" begin="0" end="1000" from="edge_x0-y3_x1-y3" to="edge_x1-y3_x1-y4" probability="0.0025" type="car0" /><flow id="flow_edge_x0-y3_x1-y3_edge_x2-y4_x2-y3" begin="0" end="1000" from="edge_x0-y3_x1-y3" to="edge_x2-y3_x2-y4" probability="0.0025" type="car0" /><flow id="flow_edge_x0-y3_x1-y3_edge_x3-y4_x3-y3" begin="0" end="1000" from="edge_x0-y3_x1-y3" to="edge_x3-y3_x3-y4" probability="0.0025" type="car0" /><flow id="flow_edge_x0-y3_x1-y3_edge_x4-y3_x3-y3" begin="0" end="1000" from="edge_x0-y3_x1-y3" to="edge_x3-y3_x4-y3" probability="0.0025" type="car0" /><flow id="flow_edge_x0-y3_x1-y3_edge_x4-y2_x3-y2" begin="0" end="1000" from="edge_x0-y3_x1-y3" to="edge_x3-y2_x4-y2" probability="0.0025" type="car0" /><flow id="flow_edge_x0-y3_x1-y3_edge_x4-y1_x3-y1" begin="0" end="1000" from="edge_x0-y3_x1-y3" to="edge_x3-y1_x4-y1" probability="0.0025" type="car0" /><flow id="flow_edge_x0-y3_x1-y3_edge_x3-y0_x3-y1" begin="0" end="1000" from="edge_x0-y3_x1-y3" to="edge_x3-y1_x3-y0" probability="0.0025" type="car0" /><flow id="flow_edge_x0-y3_x1-y3_edge_x2-y0_x2-y1" begin="0" end="1000" from="edge_x0-y3_x1-y3" to="edge_x2-y1_x2-y0" probability="0.0025" type="car0" /><flow id="flow_edge_x0-y3_x1-y3_edge_x1-y0_x1-y1" begin="0" end="1000" from="edge_x0-y3_x1-y3" to="edge_x1-y1_x1-y0" probability="0.0025" type="car0" /><flow id="flow_edge_x0-y3_x1-y3_edge_x0-y1_x1-y1" begin="0" end="1000" from="edge_x0-y3_x1-y3" to="edge_x1-y1_x0-y1" probability="0.0025" type="car0" /><flow id="flow_edge_x0-y3_x1-y3_edge_x0-y2_x1-y2" begin="0" end="1000" from="edge_x0-y3_x1-y3" to="edge_x1-y2_x0-y2" probability="0.0025" type="car0" /></routes>