<?xml version="1.0" encoding="UTF-8"?>

<!-- generated on 2023-10-26 10:02:38 by Eclipse SUMO netconvert Version 1.12.0
<configuration xmlns:xsi="http://www.w3.org/2001/XMLSchema-instance" xsi:noNamespaceSchemaLocation="http://sumo.dlr.de/xsd/netconvertConfiguration.xsd">

    <input>
        <node-files value="test_output.nod.xml"/>
        <edge-files value="test_output.edg.xml"/>
        <connection-files value="test_output.con.xml"/>
        <tllogic-files value="test_output.ttl.xml"/>
        <type-files value="test_output.typ.xml"/>
    </input>

    <output>
        <output-file value="test_output.net.xml"/>
    </output>

    <report>
        <aggregate-warnings value="5"/>
    </report>

</configuration>
-->

<net version="1.9" junctionCornerDetail="5" limitTurnSpeed="5.50" xmlns:xsi="http://www.w3.org/2001/XMLSchema-instance" xsi:noNamespaceSchemaLocation="http://sumo.dlr.de/xsd/net_file.xsd">

    <location netOffset="0.00,0.00" convBoundary="0.00,0.00,1341.15,1389.62" origBoundary="0.00,0.00,1341.15,1389.62" projParameter="!"/>

    <type id="default" numLanes="1" speed="30.00"/>

    <edge id=":x0-y1_0" function="internal">
        <lane id=":x0-y1_0_0" index="0" speed="3.65" length="4.67" shape="0.00,479.74 -1.20,478.94 -1.60,478.14 -1.20,477.34 0.00,476.54"/>
    </edge>
    <edge id=":x0-y2_0" function="internal">
        <lane id=":x0-y2_0_0" index="0" speed="3.65" length="4.67" shape="0.00,674.34 -1.20,673.54 -1.60,672.74 -1.20,671.94 0.00,671.14"/>
    </edge>
    <edge id=":x0-y3_0" function="internal">
        <lane id=":x0-y3_0_0" index="0" speed="3.65" length="4.67" shape="0.00,1079.76 -1.20,1078.96 -1.60,1078.16 -1.20,1077.36 0.00,1076.56"/>
    </edge>
    <edge id=":x1-y0_0" function="internal">
        <lane id=":x1-y0_0_0" index="0" speed="3.65" length="4.67" shape="419.41,-0.00 420.21,-1.20 421.01,-1.60 421.81,-1.20 422.61,-0.00"/>
    </edge>
    <edge id=":x1-y1_0" function="internal">
        <lane id=":x1-y1_0_0" index="0" speed="6.51" length="9.03" shape="419.41,485.34 419.06,482.89 418.01,481.14 416.26,480.09 413.81,479.74"/>
    </edge>
    <edge id=":x1-y1_1" function="internal">
        <lane id=":x1-y1_1_0" index="0" speed="30.00" length="14.40" shape="419.41,485.34 419.41,470.94"/>
    </edge>
    <edge id=":x1-y1_2" function="internal">
        <lane id=":x1-y1_2_0" index="0" speed="8.00" length="14.19" shape="419.41,485.34 419.96,481.49 421.61,478.74 424.36,477.09 428.21,476.54"/>
    </edge>
    <edge id=":x1-y1_3" function="internal">
        <lane id=":x1-y1_3_0" index="0" speed="6.51" length="9.03" shape="428.21,479.74 425.76,480.09 424.01,481.14 422.96,482.89 422.61,485.34"/>
    </edge>
    <edge id=":x1-y1_4" function="internal">
        <lane id=":x1-y1_4_0" index="0" speed="30.00" length="14.40" shape="428.21,479.74 413.81,479.74"/>
    </edge>
    <edge id=":x1-y1_5" function="internal">
        <lane id=":x1-y1_5_0" index="0" speed="8.00" length="14.19" shape="428.21,479.74 424.36,479.19 421.61,477.54 419.96,474.79 419.41,470.94"/>
    </edge>
    <edge id=":x1-y1_6" function="internal">
        <lane id=":x1-y1_6_0" index="0" speed="6.51" length="9.03" shape="422.61,470.94 422.96,473.39 424.01,475.14 425.76,476.19 428.21,476.54"/>
    </edge>
    <edge id=":x1-y1_7" function="internal">
        <lane id=":x1-y1_7_0" index="0" speed="30.00" length="14.40" shape="422.61,470.94 422.61,485.34"/>
    </edge>
    <edge id=":x1-y1_8" function="internal">
        <lane id=":x1-y1_8_0" index="0" speed="8.00" length="14.19" shape="422.61,470.94 422.06,474.79 420.41,477.54 417.66,479.19 413.81,479.74"/>
    </edge>
    <edge id=":x1-y1_9" function="internal">
        <lane id=":x1-y1_9_0" index="0" speed="6.51" length="9.03" shape="413.81,476.54 416.26,476.19 418.01,475.14 419.06,473.39 419.41,470.94"/>
    </edge>
    <edge id=":x1-y1_10" function="internal">
        <lane id=":x1-y1_10_0" index="0" speed="30.00" length="14.40" shape="413.81,476.54 428.21,476.54"/>
    </edge>
    <edge id=":x1-y1_11" function="internal">
        <lane id=":x1-y1_11_0" index="0" speed="8.00" length="14.19" shape="413.81,476.54 417.66,477.09 420.41,478.74 422.06,481.49 422.61,485.34"/>
    </edge>
    <edge id=":x1-y2_0" function="internal">
        <lane id=":x1-y2_0_0" index="0" speed="6.51" length="9.03" shape="419.41,679.94 419.06,677.49 418.01,675.74 416.26,674.69 413.81,674.34"/>
    </edge>
    <edge id=":x1-y2_1" function="internal">
        <lane id=":x1-y2_1_0" index="0" speed="30.00" length="14.40" shape="419.41,679.94 419.41,665.54"/>
    </edge>
    <edge id=":x1-y2_2" function="internal">
        <lane id=":x1-y2_2_0" index="0" speed="8.00" length="14.19" shape="419.41,679.94 419.96,676.09 421.61,673.34 424.36,671.69 428.21,671.14"/>
    </edge>
    <edge id=":x1-y2_3" function="internal">
        <lane id=":x1-y2_3_0" index="0" speed="6.51" length="9.03" shape="428.21,674.34 425.76,674.69 424.01,675.74 422.96,677.49 422.61,679.94"/>
    </edge>
    <edge id=":x1-y2_4" function="internal">
        <lane id=":x1-y2_4_0" index="0" speed="30.00" length="14.40" shape="428.21,674.34 413.81,674.34"/>
    </edge>
    <edge id=":x1-y2_5" function="internal">
        <lane id=":x1-y2_5_0" index="0" speed="8.00" length="14.19" shape="428.21,674.34 424.36,673.79 421.61,672.14 419.96,669.39 419.41,665.54"/>
    </edge>
    <edge id=":x1-y2_6" function="internal">
        <lane id=":x1-y2_6_0" index="0" speed="6.51" length="9.03" shape="422.61,665.54 422.96,667.99 424.01,669.74 425.76,670.79 428.21,671.14"/>
    </edge>
    <edge id=":x1-y2_7" function="internal">
        <lane id=":x1-y2_7_0" index="0" speed="30.00" length="14.40" shape="422.61,665.54 422.61,679.94"/>
    </edge>
    <edge id=":x1-y2_8" function="internal">
        <lane id=":x1-y2_8_0" index="0" speed="8.00" length="14.19" shape="422.61,665.54 422.06,669.39 420.41,672.14 417.66,673.79 413.81,674.34"/>
    </edge>
    <edge id=":x1-y2_9" function="internal">
        <lane id=":x1-y2_9_0" index="0" speed="6.51" length="9.03" shape="413.81,671.14 416.26,670.79 418.01,669.74 419.06,667.99 419.41,665.54"/>
    </edge>
    <edge id=":x1-y2_10" function="internal">
        <lane id=":x1-y2_10_0" index="0" speed="30.00" length="14.40" shape="413.81,671.14 428.21,671.14"/>
    </edge>
    <edge id=":x1-y2_11" function="internal">
        <lane id=":x1-y2_11_0" index="0" speed="8.00" length="14.19" shape="413.81,671.14 417.66,671.69 420.41,673.34 422.06,676.09 422.61,679.94"/>
    </edge>
    <edge id=":x1-y3_0" function="internal">
        <lane id=":x1-y3_0_0" index="0" speed="6.51" length="9.03" shape="419.41,1085.36 419.06,1082.91 418.01,1081.16 416.26,1080.11 413.81,1079.76"/>
    </edge>
    <edge id=":x1-y3_1" function="internal">
        <lane id=":x1-y3_1_0" index="0" speed="30.00" length="14.40" shape="419.41,1085.36 419.41,1070.96"/>
    </edge>
    <edge id=":x1-y3_2" function="internal">
        <lane id=":x1-y3_2_0" index="0" speed="8.00" length="14.19" shape="419.41,1085.36 419.96,1081.51 421.61,1078.76 424.36,1077.11 428.21,1076.56"/>
    </edge>
    <edge id=":x1-y3_3" function="internal">
        <lane id=":x1-y3_3_0" index="0" speed="6.51" length="9.03" shape="428.21,1079.76 425.76,1080.11 424.01,1081.16 422.96,1082.91 422.61,1085.36"/>
    </edge>
    <edge id=":x1-y3_4" function="internal">
        <lane id=":x1-y3_4_0" index="0" speed="30.00" length="14.40" shape="428.21,1079.76 413.81,1079.76"/>
    </edge>
    <edge id=":x1-y3_5" function="internal">
        <lane id=":x1-y3_5_0" index="0" speed="8.00" length="14.19" shape="428.21,1079.76 424.36,1079.21 421.61,1077.56 419.96,1074.81 419.41,1070.96"/>
    </edge>
    <edge id=":x1-y3_6" function="internal">
        <lane id=":x1-y3_6_0" index="0" speed="6.51" length="9.03" shape="422.61,1070.96 422.96,1073.41 424.01,1075.16 425.76,1076.21 428.21,1076.56"/>
    </edge>
    <edge id=":x1-y3_7" function="internal">
        <lane id=":x1-y3_7_0" index="0" speed="30.00" length="14.40" shape="422.61,1070.96 422.61,1085.36"/>
    </edge>
    <edge id=":x1-y3_8" function="internal">
        <lane id=":x1-y3_8_0" index="0" speed="8.00" length="14.19" shape="422.61,1070.96 422.06,1074.81 420.41,1077.56 417.66,1079.21 413.81,1079.76"/>
    </edge>
    <edge id=":x1-y3_9" function="internal">
        <lane id=":x1-y3_9_0" index="0" speed="6.51" length="9.03" shape="413.81,1076.56 416.26,1076.21 418.01,1075.16 419.06,1073.41 419.41,1070.96"/>
    </edge>
    <edge id=":x1-y3_10" function="internal">
        <lane id=":x1-y3_10_0" index="0" speed="30.00" length="14.40" shape="413.81,1076.56 428.21,1076.56"/>
    </edge>
    <edge id=":x1-y3_11" function="internal">
        <lane id=":x1-y3_11_0" index="0" speed="8.00" length="14.19" shape="413.81,1076.56 417.66,1077.11 420.41,1078.76 422.06,1081.51 422.61,1085.36"/>
    </edge>
    <edge id=":x1-y4_0" function="internal">
        <lane id=":x1-y4_0_0" index="0" speed="3.65" length="4.67" shape="422.61,1389.62 421.81,1390.82 421.01,1391.22 420.21,1390.82 419.41,1389.62"/>
    </edge>
    <edge id=":x2-y0_0" function="internal">
        <lane id=":x2-y0_0_0" index="0" speed="3.65" length="4.67" shape="780.34,-0.00 781.14,-1.20 781.94,-1.60 782.74,-1.20 783.54,-0.00"/>
    </edge>
    <edge id=":x2-y1_0" function="internal">
        <lane id=":x2-y1_0_0" index="0" speed="6.51" length="9.03" shape="780.34,485.34 779.99,482.89 778.94,481.14 777.19,480.09 774.74,479.74"/>
    </edge>
    <edge id=":x2-y1_1" function="internal">
        <lane id=":x2-y1_1_0" index="0" speed="30.00" length="14.40" shape="780.34,485.34 780.34,470.94"/>
    </edge>
    <edge id=":x2-y1_2" function="internal">
        <lane id=":x2-y1_2_0" index="0" speed="8.00" length="14.19" shape="780.34,485.34 780.89,481.49 782.54,478.74 785.29,477.09 789.14,476.54"/>
    </edge>
    <edge id=":x2-y1_3" function="internal">
        <lane id=":x2-y1_3_0" index="0" speed="6.51" length="9.03" shape="789.14,479.74 786.69,480.09 784.94,481.14 783.89,482.89 783.54,485.34"/>
    </edge>
    <edge id=":x2-y1_4" function="internal">
        <lane id=":x2-y1_4_0" index="0" speed="30.00" length="14.40" shape="789.14,479.74 774.74,479.74"/>
    </edge>
    <edge id=":x2-y1_5" function="internal">
        <lane id=":x2-y1_5_0" index="0" speed="8.00" length="14.19" shape="789.14,479.74 785.29,479.19 782.54,477.54 780.89,474.79 780.34,470.94"/>
    </edge>
    <edge id=":x2-y1_6" function="internal">
        <lane id=":x2-y1_6_0" index="0" speed="6.51" length="9.03" shape="783.54,470.94 783.89,473.39 784.94,475.14 786.69,476.19 789.14,476.54"/>
    </edge>
    <edge id=":x2-y1_7" function="internal">
        <lane id=":x2-y1_7_0" index="0" speed="30.00" length="14.40" shape="783.54,470.94 783.54,485.34"/>
    </edge>
    <edge id=":x2-y1_8" function="internal">
        <lane id=":x2-y1_8_0" index="0" speed="8.00" length="14.19" shape="783.54,470.94 782.99,474.79 781.34,477.54 778.59,479.19 774.74,479.74"/>
    </edge>
    <edge id=":x2-y1_9" function="internal">
        <lane id=":x2-y1_9_0" index="0" speed="6.51" length="9.03" shape="774.74,476.54 777.19,476.19 778.94,475.14 779.99,473.39 780.34,470.94"/>
    </edge>
    <edge id=":x2-y1_10" function="internal">
        <lane id=":x2-y1_10_0" index="0" speed="30.00" length="14.40" shape="774.74,476.54 789.14,476.54"/>
    </edge>
    <edge id=":x2-y1_11" function="internal">
        <lane id=":x2-y1_11_0" index="0" speed="8.00" length="14.19" shape="774.74,476.54 778.59,477.09 781.34,478.74 782.99,481.49 783.54,485.34"/>
    </edge>
    <edge id=":x2-y2_0" function="internal">
        <lane id=":x2-y2_0_0" index="0" speed="6.51" length="9.03" shape="780.34,679.94 779.99,677.49 778.94,675.74 777.19,674.69 774.74,674.34"/>
    </edge>
    <edge id=":x2-y2_1" function="internal">
        <lane id=":x2-y2_1_0" index="0" speed="30.00" length="14.40" shape="780.34,679.94 780.34,665.54"/>
    </edge>
    <edge id=":x2-y2_2" function="internal">
        <lane id=":x2-y2_2_0" index="0" speed="8.00" length="14.19" shape="780.34,679.94 780.89,676.09 782.54,673.34 785.29,671.69 789.14,671.14"/>
    </edge>
    <edge id=":x2-y2_3" function="internal">
        <lane id=":x2-y2_3_0" index="0" speed="6.51" length="9.03" shape="789.14,674.34 786.69,674.69 784.94,675.74 783.89,677.49 783.54,679.94"/>
    </edge>
    <edge id=":x2-y2_4" function="internal">
        <lane id=":x2-y2_4_0" index="0" speed="30.00" length="14.40" shape="789.14,674.34 774.74,674.34"/>
    </edge>
    <edge id=":x2-y2_5" function="internal">
        <lane id=":x2-y2_5_0" index="0" speed="8.00" length="14.19" shape="789.14,674.34 785.29,673.79 782.54,672.14 780.89,669.39 780.34,665.54"/>
    </edge>
    <edge id=":x2-y2_6" function="internal">
        <lane id=":x2-y2_6_0" index="0" speed="6.51" length="9.03" shape="783.54,665.54 783.89,667.99 784.94,669.74 786.69,670.79 789.14,671.14"/>
    </edge>
    <edge id=":x2-y2_7" function="internal">
        <lane id=":x2-y2_7_0" index="0" speed="30.00" length="14.40" shape="783.54,665.54 783.54,679.94"/>
    </edge>
    <edge id=":x2-y2_8" function="internal">
        <lane id=":x2-y2_8_0" index="0" speed="8.00" length="14.19" shape="783.54,665.54 782.99,669.39 781.34,672.14 778.59,673.79 774.74,674.34"/>
    </edge>
    <edge id=":x2-y2_9" function="internal">
        <lane id=":x2-y2_9_0" index="0" speed="6.51" length="9.03" shape="774.74,671.14 777.19,670.79 778.94,669.74 779.99,667.99 780.34,665.54"/>
    </edge>
    <edge id=":x2-y2_10" function="internal">
        <lane id=":x2-y2_10_0" index="0" speed="30.00" length="14.40" shape="774.74,671.14 789.14,671.14"/>
    </edge>
    <edge id=":x2-y2_11" function="internal">
        <lane id=":x2-y2_11_0" index="0" speed="8.00" length="14.19" shape="774.74,671.14 778.59,671.69 781.34,673.34 782.99,676.09 783.54,679.94"/>
    </edge>
    <edge id=":x2-y3_0" function="internal">
        <lane id=":x2-y3_0_0" index="0" speed="6.51" length="9.03" shape="780.34,1085.36 779.99,1082.91 778.94,1081.16 777.19,1080.11 774.74,1079.76"/>
    </edge>
    <edge id=":x2-y3_1" function="internal">
        <lane id=":x2-y3_1_0" index="0" speed="30.00" length="14.40" shape="780.34,1085.36 780.34,1070.96"/>
    </edge>
    <edge id=":x2-y3_2" function="internal">
        <lane id=":x2-y3_2_0" index="0" speed="8.00" length="14.19" shape="780.34,1085.36 780.89,1081.51 782.54,1078.76 785.29,1077.11 789.14,1076.56"/>
    </edge>
    <edge id=":x2-y3_3" function="internal">
        <lane id=":x2-y3_3_0" index="0" speed="6.51" length="9.03" shape="789.14,1079.76 786.69,1080.11 784.94,1081.16 783.89,1082.91 783.54,1085.36"/>
    </edge>
    <edge id=":x2-y3_4" function="internal">
        <lane id=":x2-y3_4_0" index="0" speed="30.00" length="14.40" shape="789.14,1079.76 774.74,1079.76"/>
    </edge>
    <edge id=":x2-y3_5" function="internal">
        <lane id=":x2-y3_5_0" index="0" speed="8.00" length="14.19" shape="789.14,1079.76 785.29,1079.21 782.54,1077.56 780.89,1074.81 780.34,1070.96"/>
    </edge>
    <edge id=":x2-y3_6" function="internal">
        <lane id=":x2-y3_6_0" index="0" speed="6.51" length="9.03" shape="783.54,1070.96 783.89,1073.41 784.94,1075.16 786.69,1076.21 789.14,1076.56"/>
    </edge>
    <edge id=":x2-y3_7" function="internal">
        <lane id=":x2-y3_7_0" index="0" speed="30.00" length="14.40" shape="783.54,1070.96 783.54,1085.36"/>
    </edge>
    <edge id=":x2-y3_8" function="internal">
        <lane id=":x2-y3_8_0" index="0" speed="8.00" length="14.19" shape="783.54,1070.96 782.99,1074.81 781.34,1077.56 778.59,1079.21 774.74,1079.76"/>
    </edge>
    <edge id=":x2-y3_9" function="internal">
        <lane id=":x2-y3_9_0" index="0" speed="6.51" length="9.03" shape="774.74,1076.56 777.19,1076.21 778.94,1075.16 779.99,1073.41 780.34,1070.96"/>
    </edge>
    <edge id=":x2-y3_10" function="internal">
        <lane id=":x2-y3_10_0" index="0" speed="30.00" length="14.40" shape="774.74,1076.56 789.14,1076.56"/>
    </edge>
    <edge id=":x2-y3_11" function="internal">
        <lane id=":x2-y3_11_0" index="0" speed="8.00" length="14.19" shape="774.74,1076.56 778.59,1077.11 781.34,1078.76 782.99,1081.51 783.54,1085.36"/>
    </edge>
    <edge id=":x2-y4_0" function="internal">
        <lane id=":x2-y4_0_0" index="0" speed="3.65" length="4.67" shape="783.54,1389.62 782.74,1390.82 781.94,1391.22 781.14,1390.82 780.34,1389.62"/>
    </edge>
    <edge id=":x3-y0_0" function="internal">
        <lane id=":x3-y0_0_0" index="0" speed="3.65" length="4.67" shape="989.88,-0.00 990.68,-1.20 991.48,-1.60 992.28,-1.20 993.08,-0.00"/>
    </edge>
    <edge id=":x3-y1_0" function="internal">
        <lane id=":x3-y1_0_0" index="0" speed="6.51" length="9.03" shape="989.88,485.34 989.53,482.89 988.48,481.14 986.73,480.09 984.28,479.74"/>
    </edge>
    <edge id=":x3-y1_1" function="internal">
        <lane id=":x3-y1_1_0" index="0" speed="30.00" length="14.40" shape="989.88,485.34 989.88,470.94"/>
    </edge>
    <edge id=":x3-y1_2" function="internal">
        <lane id=":x3-y1_2_0" index="0" speed="8.00" length="14.19" shape="989.88,485.34 990.43,481.49 992.08,478.74 994.83,477.09 998.68,476.54"/>
    </edge>
    <edge id=":x3-y1_3" function="internal">
        <lane id=":x3-y1_3_0" index="0" speed="6.51" length="9.03" shape="998.68,479.74 996.23,480.09 994.48,481.14 993.43,482.89 993.08,485.34"/>
    </edge>
    <edge id=":x3-y1_4" function="internal">
        <lane id=":x3-y1_4_0" index="0" speed="30.00" length="14.40" shape="998.68,479.74 984.28,479.74"/>
    </edge>
    <edge id=":x3-y1_5" function="internal">
        <lane id=":x3-y1_5_0" index="0" speed="8.00" length="14.19" shape="998.68,479.74 994.83,479.19 992.08,477.54 990.43,474.79 989.88,470.94"/>
    </edge>
    <edge id=":x3-y1_6" function="internal">
        <lane id=":x3-y1_6_0" index="0" speed="6.51" length="9.03" shape="993.08,470.94 993.43,473.39 994.48,475.14 996.23,476.19 998.68,476.54"/>
    </edge>
    <edge id=":x3-y1_7" function="internal">
        <lane id=":x3-y1_7_0" index="0" speed="30.00" length="14.40" shape="993.08,470.94 993.08,485.34"/>
    </edge>
    <edge id=":x3-y1_8" function="internal">
        <lane id=":x3-y1_8_0" index="0" speed="8.00" length="14.19" shape="993.08,470.94 992.53,474.79 990.88,477.54 988.13,479.19 984.28,479.74"/>
    </edge>
    <edge id=":x3-y1_9" function="internal">
        <lane id=":x3-y1_9_0" index="0" speed="6.51" length="9.03" shape="984.28,476.54 986.73,476.19 988.48,475.14 989.53,473.39 989.88,470.94"/>
    </edge>
    <edge id=":x3-y1_10" function="internal">
        <lane id=":x3-y1_10_0" index="0" speed="30.00" length="14.40" shape="984.28,476.54 998.68,476.54"/>
    </edge>
    <edge id=":x3-y1_11" function="internal">
        <lane id=":x3-y1_11_0" index="0" speed="8.00" length="14.19" shape="984.28,476.54 988.13,477.09 990.88,478.74 992.53,481.49 993.08,485.34"/>
    </edge>
    <edge id=":x3-y2_0" function="internal">
        <lane id=":x3-y2_0_0" index="0" speed="6.51" length="9.03" shape="989.88,679.94 989.53,677.49 988.48,675.74 986.73,674.69 984.28,674.34"/>
    </edge>
    <edge id=":x3-y2_1" function="internal">
        <lane id=":x3-y2_1_0" index="0" speed="30.00" length="14.40" shape="989.88,679.94 989.88,665.54"/>
    </edge>
    <edge id=":x3-y2_2" function="internal">
        <lane id=":x3-y2_2_0" index="0" speed="8.00" length="14.19" shape="989.88,679.94 990.43,676.09 992.08,673.34 994.83,671.69 998.68,671.14"/>
    </edge>
    <edge id=":x3-y2_3" function="internal">
        <lane id=":x3-y2_3_0" index="0" speed="6.51" length="9.03" shape="998.68,674.34 996.23,674.69 994.48,675.74 993.43,677.49 993.08,679.94"/>
    </edge>
    <edge id=":x3-y2_4" function="internal">
        <lane id=":x3-y2_4_0" index="0" speed="30.00" length="14.40" shape="998.68,674.34 984.28,674.34"/>
    </edge>
    <edge id=":x3-y2_5" function="internal">
        <lane id=":x3-y2_5_0" index="0" speed="8.00" length="14.19" shape="998.68,674.34 994.83,673.79 992.08,672.14 990.43,669.39 989.88,665.54"/>
    </edge>
    <edge id=":x3-y2_6" function="internal">
        <lane id=":x3-y2_6_0" index="0" speed="6.51" length="9.03" shape="993.08,665.54 993.43,667.99 994.48,669.74 996.23,670.79 998.68,671.14"/>
    </edge>
    <edge id=":x3-y2_7" function="internal">
        <lane id=":x3-y2_7_0" index="0" speed="30.00" length="14.40" shape="993.08,665.54 993.08,679.94"/>
    </edge>
    <edge id=":x3-y2_8" function="internal">
        <lane id=":x3-y2_8_0" index="0" speed="8.00" length="14.19" shape="993.08,665.54 992.53,669.39 990.88,672.14 988.13,673.79 984.28,674.34"/>
    </edge>
    <edge id=":x3-y2_9" function="internal">
        <lane id=":x3-y2_9_0" index="0" speed="6.51" length="9.03" shape="984.28,671.14 986.73,670.79 988.48,669.74 989.53,667.99 989.88,665.54"/>
    </edge>
    <edge id=":x3-y2_10" function="internal">
        <lane id=":x3-y2_10_0" index="0" speed="30.00" length="14.40" shape="984.28,671.14 998.68,671.14"/>
    </edge>
    <edge id=":x3-y2_11" function="internal">
        <lane id=":x3-y2_11_0" index="0" speed="8.00" length="14.19" shape="984.28,671.14 988.13,671.69 990.88,673.34 992.53,676.09 993.08,679.94"/>
    </edge>
    <edge id=":x3-y3_0" function="internal">
        <lane id=":x3-y3_0_0" index="0" speed="6.51" length="9.03" shape="989.88,1085.36 989.53,1082.91 988.48,1081.16 986.73,1080.11 984.28,1079.76"/>
    </edge>
    <edge id=":x3-y3_1" function="internal">
        <lane id=":x3-y3_1_0" index="0" speed="30.00" length="14.40" shape="989.88,1085.36 989.88,1070.96"/>
    </edge>
    <edge id=":x3-y3_2" function="internal">
        <lane id=":x3-y3_2_0" index="0" speed="8.00" length="14.19" shape="989.88,1085.36 990.43,1081.51 992.08,1078.76 994.83,1077.11 998.68,1076.56"/>
    </edge>
    <edge id=":x3-y3_3" function="internal">
        <lane id=":x3-y3_3_0" index="0" speed="6.51" length="9.03" shape="998.68,1079.76 996.23,1080.11 994.48,1081.16 993.43,1082.91 993.08,1085.36"/>
    </edge>
    <edge id=":x3-y3_4" function="internal">
        <lane id=":x3-y3_4_0" index="0" speed="30.00" length="14.40" shape="998.68,1079.76 984.28,1079.76"/>
    </edge>
    <edge id=":x3-y3_5" function="internal">
        <lane id=":x3-y3_5_0" index="0" speed="8.00" length="14.19" shape="998.68,1079.76 994.83,1079.21 992.08,1077.56 990.43,1074.81 989.88,1070.96"/>
    </edge>
    <edge id=":x3-y3_6" function="internal">
        <lane id=":x3-y3_6_0" index="0" speed="6.51" length="9.03" shape="993.08,1070.96 993.43,1073.41 994.48,1075.16 996.23,1076.21 998.68,1076.56"/>
    </edge>
    <edge id=":x3-y3_7" function="internal">
        <lane id=":x3-y3_7_0" index="0" speed="30.00" length="14.40" shape="993.08,1070.96 993.08,1085.36"/>
    </edge>
    <edge id=":x3-y3_8" function="internal">
        <lane id=":x3-y3_8_0" index="0" speed="8.00" length="14.19" shape="993.08,1070.96 992.53,1074.81 990.88,1077.56 988.13,1079.21 984.28,1079.76"/>
    </edge>
    <edge id=":x3-y3_9" function="internal">
        <lane id=":x3-y3_9_0" index="0" speed="6.51" length="9.03" shape="984.28,1076.56 986.73,1076.21 988.48,1075.16 989.53,1073.41 989.88,1070.96"/>
    </edge>
    <edge id=":x3-y3_10" function="internal">
        <lane id=":x3-y3_10_0" index="0" speed="30.00" length="14.40" shape="984.28,1076.56 998.68,1076.56"/>
    </edge>
    <edge id=":x3-y3_11" function="internal">
        <lane id=":x3-y3_11_0" index="0" speed="8.00" length="14.19" shape="984.28,1076.56 988.13,1077.11 990.88,1078.76 992.53,1081.51 993.08,1085.36"/>
    </edge>
    <edge id=":x3-y4_0" function="internal">
        <lane id=":x3-y4_0_0" index="0" speed="3.65" length="4.67" shape="993.08,1389.62 992.28,1390.82 991.48,1391.22 990.68,1390.82 989.88,1389.62"/>
    </edge>
    <edge id=":x4-y1_0" function="internal">
        <lane id=":x4-y1_0_0" index="0" speed="3.65" length="4.67" shape="1341.15,476.54 1342.35,477.34 1342.75,478.14 1342.35,478.94 1341.15,479.74"/>
    </edge>
    <edge id=":x4-y2_0" function="internal">
        <lane id=":x4-y2_0_0" index="0" speed="3.65" length="4.67" shape="1341.15,671.14 1342.35,671.94 1342.75,672.74 1342.35,673.54 1341.15,674.34"/>
    </edge>
    <edge id=":x4-y3_0" function="internal">
        <lane id=":x4-y3_0_0" index="0" speed="3.65" length="4.67" shape="1341.15,1076.56 1342.35,1077.36 1342.75,1078.16 1342.35,1078.96 1341.15,1079.76"/>
    </edge>

    <edge id="edge_x0-y1_x1-y1" from="x0-y1" to="x1-y1" priority="-1" type="default">
        <lane id="edge_x0-y1_x1-y1_0" index="0" speed="30.00" length="413.81" shape="0.00,476.54 413.81,476.54"/>
    </edge>
    <edge id="edge_x0-y2_x1-y2" from="x0-y2" to="x1-y2" priority="-1" type="default">
        <lane id="edge_x0-y2_x1-y2_0" index="0" speed="30.00" length="413.81" shape="0.00,671.14 413.81,671.14"/>
    </edge>
    <edge id="edge_x0-y3_x1-y3" from="x0-y3" to="x1-y3" priority="-1" type="default">
        <lane id="edge_x0-y3_x1-y3_0" index="0" speed="30.00" length="413.81" shape="0.00,1076.56 413.81,1076.56"/>
    </edge>
    <edge id="edge_x1-y0_x1-y1" from="x1-y0" to="x1-y1" priority="-1" type="default">
        <lane id="edge_x1-y0_x1-y1_0" index="0" speed="30.00" length="470.94" shape="422.61,-0.00 422.61,470.94"/>
    </edge>
    <edge id="edge_x1-y1_x0-y1" from="x1-y1" to="x0-y1" priority="-1" type="default">
        <lane id="edge_x1-y1_x0-y1_0" index="0" speed="30.00" length="413.81" shape="413.81,479.74 0.00,479.74"/>
    </edge>
    <edge id="edge_x1-y1_x1-y0" from="x1-y1" to="x1-y0" priority="-1" type="default">
        <lane id="edge_x1-y1_x1-y0_0" index="0" speed="30.00" length="470.94" shape="419.41,470.94 419.41,-0.00"/>
    </edge>
    <edge id="edge_x1-y1_x1-y2" from="x1-y1" to="x1-y2" priority="-1" type="default">
        <lane id="edge_x1-y1_x1-y2_0" index="0" speed="30.00" length="180.20" shape="422.61,485.34 422.61,665.54"/>
    </edge>
    <edge id="edge_x1-y1_x2-y1" from="x1-y1" to="x2-y1" priority="-1" type="default">
        <lane id="edge_x1-y1_x2-y1_0" index="0" speed="30.00" length="346.52" shape="428.21,476.54 774.74,476.54"/>
    </edge>
    <edge id="edge_x1-y2_x0-y2" from="x1-y2" to="x0-y2" priority="-1" type="default">
        <lane id="edge_x1-y2_x0-y2_0" index="0" speed="30.00" length="413.81" shape="413.81,674.34 0.00,674.34"/>
    </edge>
    <edge id="edge_x1-y2_x1-y1" from="x1-y2" to="x1-y1" priority="-1" type="default">
        <lane id="edge_x1-y2_x1-y1_0" index="0" speed="30.00" length="180.20" shape="419.41,665.54 419.41,485.34"/>
    </edge>
    <edge id="edge_x1-y2_x1-y3" from="x1-y2" to="x1-y3" priority="-1" type="default">
        <lane id="edge_x1-y2_x1-y3_0" index="0" speed="30.00" length="391.01" shape="422.61,679.94 422.61,1070.96"/>
    </edge>
    <edge id="edge_x1-y2_x2-y2" from="x1-y2" to="x2-y2" priority="-1" type="default">
        <lane id="edge_x1-y2_x2-y2_0" index="0" speed="30.00" length="346.52" shape="428.21,671.14 774.74,671.14"/>
    </edge>
    <edge id="edge_x1-y3_x0-y3" from="x1-y3" to="x0-y3" priority="-1" type="default">
        <lane id="edge_x1-y3_x0-y3_0" index="0" speed="30.00" length="413.81" shape="413.81,1079.76 0.00,1079.76"/>
    </edge>
    <edge id="edge_x1-y3_x1-y2" from="x1-y3" to="x1-y2" priority="-1" type="default">
        <lane id="edge_x1-y3_x1-y2_0" index="0" speed="30.00" length="391.01" shape="419.41,1070.96 419.41,679.94"/>
    </edge>
    <edge id="edge_x1-y3_x1-y4" from="x1-y3" to="x1-y4" priority="-1" type="default">
        <lane id="edge_x1-y3_x1-y4_0" index="0" speed="30.00" length="304.27" shape="422.61,1085.36 422.61,1389.62"/>
    </edge>
    <edge id="edge_x1-y3_x2-y3" from="x1-y3" to="x2-y3" priority="-1" type="default">
        <lane id="edge_x1-y3_x2-y3_0" index="0" speed="30.00" length="346.52" shape="428.21,1076.56 774.74,1076.56"/>
    </edge>
    <edge id="edge_x1-y4_x1-y3" from="x1-y4" to="x1-y3" priority="-1" type="default">
        <lane id="edge_x1-y4_x1-y3_0" index="0" speed="30.00" length="304.27" shape="419.41,1389.62 419.41,1085.36"/>
    </edge>
    <edge id="edge_x2-y0_x2-y1" from="x2-y0" to="x2-y1" priority="-1" type="default">
        <lane id="edge_x2-y0_x2-y1_0" index="0" speed="30.00" length="470.94" shape="783.54,-0.00 783.54,470.94"/>
    </edge>
    <edge id="edge_x2-y1_x1-y1" from="x2-y1" to="x1-y1" priority="-1" type="default">
        <lane id="edge_x2-y1_x1-y1_0" index="0" speed="30.00" length="346.52" shape="774.74,479.74 428.21,479.74"/>
    </edge>
    <edge id="edge_x2-y1_x2-y0" from="x2-y1" to="x2-y0" priority="-1" type="default">
        <lane id="edge_x2-y1_x2-y0_0" index="0" speed="30.00" length="470.94" shape="780.34,470.94 780.34,-0.00"/>
    </edge>
    <edge id="edge_x2-y1_x2-y2" from="x2-y1" to="x2-y2" priority="-1" type="default">
        <lane id="edge_x2-y1_x2-y2_0" index="0" speed="30.00" length="180.20" shape="783.54,485.34 783.54,665.54"/>
    </edge>
    <edge id="edge_x2-y1_x3-y1" from="x2-y1" to="x3-y1" priority="-1" type="default">
        <lane id="edge_x2-y1_x3-y1_0" index="0" speed="30.00" length="195.14" shape="789.14,476.54 984.28,476.54"/>
    </edge>
    <edge id="edge_x2-y2_x1-y2" from="x2-y2" to="x1-y2" priority="-1" type="default">
        <lane id="edge_x2-y2_x1-y2_0" index="0" speed="30.00" length="346.52" shape="774.74,674.34 428.21,674.34"/>
    </edge>
    <edge id="edge_x2-y2_x2-y1" from="x2-y2" to="x2-y1" priority="-1" type="default">
        <lane id="edge_x2-y2_x2-y1_0" index="0" speed="30.00" length="180.20" shape="780.34,665.54 780.34,485.34"/>
    </edge>
    <edge id="edge_x2-y2_x2-y3" from="x2-y2" to="x2-y3" priority="-1" type="default">
        <lane id="edge_x2-y2_x2-y3_0" index="0" speed="30.00" length="391.01" shape="783.54,679.94 783.54,1070.96"/>
    </edge>
    <edge id="edge_x2-y2_x3-y2" from="x2-y2" to="x3-y2" priority="-1" type="default">
        <lane id="edge_x2-y2_x3-y2_0" index="0" speed="30.00" length="195.14" shape="789.14,671.14 984.28,671.14"/>
    </edge>