<edges><edge id="edge_x0-y1_x1-y1" from="x0-y1" to="x1-y1" type="default" /><edge id="edge_x0-y2_x1-y2" from="x0-y2" to="x1-y2" type="default" /><edge id="edge_x0-y3_x1-y3" from="x0-y3" to="x1-y3" type="default" /><edge id="edge_x1-y0_x1-y1" from="x1-y0" to="x1-y1" type="default" /><edge id="edge_x1-y1_x2-y1" from="x1-y1" to="x2-y1" type="default" /><edge id="edge_x1-y1_x0-y1" from="x1-y1" to="x0-y1" type="default" /><edge id="edge_x1-y1_x1-y2" from="x1-y1" to="x1-y2" type="default" /><edge id="edge_x1-y1_x1-y0" from="x1-y1" to="x1-y0" type="default" /><edge id="edge_x1-y2_x2-y2" from="x1-y2" to="x2-y2" type="default" /><edge id="edge_x1-y2_x0-y2" from="x1-y2" to="x0-y2" type="default" /><edge id="edge_x1-y2_x1-y3" from="x1-y2" to="x1-y3" type="default" /><edge id="edge_x1-y2_x1-y1" from="x1-y2" to="x1-y1" type="default" /><edge id="edge_x1-y3_x2-y3" from="x1-y3" to="x2-y3" type="default" /><edge id="edge_x1-y3_x0-y3" from="x1-y3" to="x0-y3" type="default" /><edge id="edge_x1-y3_x1-y4" from="x1-y3" to="x1-y4" type="default" /><edge id="edge_x1-y3_x1-y2" from="x1-y3" to="x1-y2" type="default" /><edge id="edge_x1-y4_x1-y3" from="x1-y4" to="x1-y3" type="default" /><edge id="edge_x2-y0_x2-y1" from="x2-y0" to="x2-y1" type="default" /><edge id="edge_x2-y1_x3-y1" from="x2-y1" to="x3-y1" type="default" /><edge id="edge_x2-y1_x1-y1" from="x2-y1" to="x1-y1" type="default" /><edge id="edge_x2-y1_x2-y2" from="x2-y1" to="x2-y2" type="default" /><edge id="edge_x2-y1_x2-y0" from="x2-y1" to="x2-y0" type="default" /><edge id="edge_x2-y2_x3-y2" from="x2-y2" to="x3-y2" type="default" /><edge id="edge_x2-y2_x1-y2" from="x2-y2" to="x1-y2" type="default" /><edge id="edge_x2-y2_x2-y3" from="x2-y2" to="x2-y3" type="default" /><edge id="edge_x2-y2_x2-y1" from="x2-y2" to="x2-y1" type="default" /><edge id="edge_x2-y3_x3-y3" from="x2-y3" to="x3-y3" type="default" /><edge id="edge_x2-y3_x1-y3" from="x2-y3" to="x1-y3" type="default" /><edge id="edge_x2-y3_x2-y4" from="x2-y3" to="x2-y4" type="default" /><edge id="edge_x2-y3_x2-y2" from="x2-y3" to="x2-y2" type="default" /><edge id="edge_x2-y4_x2-y3" from="x2-y4" to="x2-y3" type="default" /><edge id="edge_x3-y0_x3-y1" from="x3-y0" to="x3-y1" type="default" /><edge id="edge_x3-y1_x4-y1" from="x3-y1" to="x4-y1" type="default" /><edge id="edge_x3-y1_x2-y1" from="x3-y1" to="x2-y1" type="default" /><edge id="edge_x3-y1_x3-y2" from="x3-y1" to="x3-y2" type="default" /><edge id="edge_x3-y1_x3-y0" from="x3-y1" to="x3-y0" type="default" /><edge id="edge_x3-y2_x4-y2" from="x3-y2" to="x4-y2" type="default" /><edge id="edge_x3-y2_x2-y2" from="x3-y2" to="x2-y2" type="default" /><edge id="edge_x3-y2_x3-y3" from="x3-y2" to="x3-y3" type="default" /><edge id="edge_x3-y2_x3-y1" from="x3-y2" to="x3-y1" type="default" /><edge id="edge_x3-y3_x4-y3" from="x3-y3" to="x4-y3" type="default" /><edge id="edge_x3-y3_x2-y3" from="x3-y3" to="x2-y3" type="default" /><edge id="edge_x3-y3_x3-y4" from="x3-y3" to="x3-y4" type="default" /><edge id="edge_x3-y3_x3-y2" from="x3-y3" to="x3-y2" type="default" /><edge id="edge_x3-y4_x3-y3" from="x3-y4" to="x3-y3" type="default" /><edge id="edge_x4-y1_x3-y1" from="x4-y1" to="x3-y1" type="default" /><edge id="edge_x4-y2_x3-y2" from="x4-y2" to="x3-y2" type="default" /><edge id="edge_x4-y3_x3-y3" from="x4-y3" to="x3-y3" type="default" /></edges>