<additional><laneAreaDetector id="detector_x0-y1_x1-y1" lane="edge_x0-y1_x1-y1_0" pos="403.812936953562" endPos="-0.1" freq="100000" file="detectors.out" /><laneAreaDetector id="detector_x0-y2_x1-y2" lane="edge_x0-y2_x1-y2_0" pos="403.812936953562" endPos="-0.1" freq="100000" file="detectors.out" /><laneAreaDetector id="detector_x0-y3_x1-y3" lane="edge_x0-y3_x1-y3_0" pos="403.812936953562" endPos="-0.1" freq="100000" file="detectors.out" /><laneAreaDetector id="detector_x1-y0_x1-y1" lane="edge_x1-y0_x1-y1_0" pos="460.94235688418706" endPos="-0.1" freq="100000" file="detectors.out" /><laneAreaDetector id="detector_x1-y1_x2-y1" lane="edge_x1-y1_x2-y1_0" pos="336.52431897771856" endPos="-0.1" freq="100000" file="detectors.out" /><laneAreaDetector id="detector_x1-y1_x1-y2" lane="edge_x1-y1_x1-y2_0" pos="170.2022700040097" endPos="-0.1" freq="100000" file="detectors.out" /><laneAreaDetector id="detector_x1-y2_x2-y2" lane="edge_x1-y2_x2-y2_0" pos="336.52431897771856" endPos="-0.1" freq="100000" file="detectors.out" /><laneAreaDetector id="detector_x1-y2_x1-y3" lane="edge_x1-y2_x1-y3_0" pos="381.01065954494504" endPos="-0.1" freq="100000" file="detectors.out" /><laneAreaDetector id="detector_x1-y2_x1-y1" lane="edge_x1-y2_x1-y1_0" pos="170.2022700040097" endPos="-0.1" freq="100000" file="detectors.out" /><laneAreaDetector id="detector_x1-y3_x2-y3" lane="edge_x1-y3_x2-y3_0" pos="336.52431897771856" endPos="-0.1" freq="100000" file="detectors.out" /><laneAreaDetector id="detector_x1-y3_x1-y2" lane="edge_x1-y3_x1-y2_0" pos="381.01065954494504" endPos="-0.1" freq="100000" file="detectors.out" /><laneAreaDetector id="detector_x1-y4_x1-y3" lane="edge_x1-y4_x1-y3_0" pos="294.2682081830178" endPos="-0.1" freq="100000" file="detectors.out" /><laneAreaDetector id="detector_x2-y0_x2-y1" lane="edge_x2-y0_x2-y1_0" pos="460.94235688418706" endPos="-0.1" freq="100000" file="detectors.out" /><laneAreaDetector id="detector_x2-y1_x3-y1" lane="edge_x2-y1_x3-y1_0" pos="185.14253705200426" endPos="-0.1" freq="100000" file="detectors.out" /><laneAreaDetector id="detector_x2-y1_x1-y1" lane="edge_x2-y1_x1-y1_0" pos="336.52431897771856" endPos="-0.1" freq="100000" file="detectors.out" /><laneAreaDetector id="detector_x2-y1_x2-y2" lane="edge_x2-y1_x2-y2_0" pos="170.2022700040097" endPos="-0.1" freq="100000" file="detectors.out" /><laneAreaDetector id="detector_x2-y2_x3-y2" lane="edge_x2-y2_x3-y2_0" pos="185.14253705200426" endPos="-0.1" freq="100000" file="detectors.out" /><laneAreaDetector id="detector_x2-y2_x1-y2" lane="edge_x2-y2_x1-y2_0" pos="336.52431897771856" endPos="-0.1" freq="100000" file="detectors.out" /><laneAreaDetector id="detector_x2-y2_x2-y3" lane="edge_x2-y2_x2-y3_0" pos="381.01065954494504" endPos="-0.1" freq="100000" file="detectors.out" /><laneAreaDetector id="detector_x2-y2_x2-y1" lane="edge_x2-y2_x2-y1_0" pos="170.2022700040097" endPos="-0.1" freq="100000" file="detectors.out" /><laneAreaDetector id="detector_x2-y3_x3-y3" lane="edge_x2-y3_x3-y3_0" pos="185.14253705200426" endPos="-0.1" freq="100000" file="detectors.out" /><laneAreaDetector id="detector_x2-y3_x1-y3" lane="edge_x2-y3_x1-y3_0" pos="336.52431897771856" endPos="-0.1" freq="100000" file="detectors.out" /><laneAreaDetector id="detector_x2-y3_x2-y2" lane="edge_x2-y3_x2-y2_0" pos="381.01065954494504" endPos="-0.1" freq="100000" file="detectors.out" /><laneAreaDetector id="detector_x2-y4_x2-y3" lane="edge_x2-y4_x2-y3_0" pos="294.2682081830178" endPos="-0.1" freq="100000" file="detectors.out" /><laneAreaDetector id="detector_x3-y0_x3-y1" lane="edge_x3-y0_x3-y1_0" pos="460.94235688418706" endPos="-0.1" freq="100000" file="detectors.out" /><laneAreaDetector id="detector_x3-y1_x2-y1" lane="edge_x3-y1_x2-y1_0" pos="185.14253705200426" endPos="-0.1" freq="100000" file="detectors.out" /><laneAreaDetector id="detector_x3-y1_x3-y2" lane="edge_x3-y1_x3-y2_0" pos="170.2022700040097" endPos="-0.1" freq="100000" file="detectors.out" /><laneAreaDetector id="detector_x3-y2_x2-y2" lane="edge_x3-y2_x2-y2_0" pos="185.14253705200426" endPos="-0.1" freq="100000" file="detectors.out" /><laneAreaDetector id="detector_x3-y2_x3-y3" lane="edge_x3-y2_x3-y3_0" pos="381.01065954494504" endPos="-0.1" freq="100000" file="detectors.out" /><laneAreaDetector id="detector_x3-y2_x3-y1" lane="edge_x3-y2_x3-y1_0" pos="170.2022700040097" endPos="-0.1" freq="100000" file="detectors.out" /><laneAreaDetector id="detector_x3-y3_x2-y3" lane="edge_x3-y3_x2-y3_0" pos="185.14253705200426" endPos="-0.1" freq="100000" file="detectors.out" /><laneAreaDetector id="detector_x3-y3_x3-y2" lane="edge_x3-y3_x3-y2_0" pos="381.01065954494504" endPos="-0.1" freq="100000" file="detectors.out" /><laneAreaDetector id="detector_x3-y4_x3-y3" lane="edge_x3-y4_x3-y3_0" pos="294.2682081830178" endPos="-0.1" freq="100000" file="detectors.out" /><laneAreaDetector id="detector_x4-y1_x3-y1" lane="edge_x4-y1_x3-y1_0" pos="332.468861739645" endPos="-0.1" freq="100000" file="detectors.out" /><laneAreaDetector id="detector_x4-y2_x3-y2" lane="edge_x4-y2_x3-y2_0" pos="332.468861739645" endPos="-0.1" freq="100000" file="detectors.out" /><laneAreaDetector id="detector_x4-y3_x3-y3" lane="edge_x4-y3_x3-y3_0" pos="332.468861739645" endPos="-0.1" freq="100000" file="detectors.out" /></additional>