<nodes><node id="x0-y1" x="0" y="478.14235688418705" /><node id="x0-y2" x="0" y="672.7446268881968" /><node id="x0-y3" x="0" y="1078.1552864331418" /><node id="x1-y0" x="421.01293695356196" y="0" /><node id="x1-y1" x="421.01293695356196" y="478.14235688418705" type="traffic_light" tl="x1-y1" /><node id="x1-y2" x="421.01293695356196" y="672.7446268881968" type="traffic_light" tl="x1-y2" /><node id="x1-y3" x="421.01293695356196" y="1078.1552864331418" type="traffic_light" tl="x1-y3" /><node id="x1-y4" x="421.01293695356196" y="1389.6234946161596" /><node id="x2-y0" x="781.9372559312806" y="0" /><node id="x2-y1" x="781.9372559312806" y="478.14235688418705" type="traffic_light" tl="x2-y1" /><node id="x2-y2" x="781.9372559312806" y="672.7446268881968" type="traffic_light" tl="x2-y2" /><node id="x2-y3" x="781.9372559312806" y="1078.1552864331418" type="traffic_light" tl="x2-y3" /><node id="x2-y4" x="781.9372559312806" y="1389.6234946161596" /><node id="x3-y0" x="991.4797929832848" y="0" /><node id="x3-y1" x="991.4797929832848" y="478.14235688418705" type="traffic_light" tl="x3-y1" /><node id="x3-y2" x="991.4797929832848" y="672.7446268881968" type="traffic_light" tl="x3-y2" /><node id="x3-y3" x="991.4797929832848" y="1078.1552864331418" type="traffic_light" tl="x3-y3" /><node id="x3-y4" x="991.4797929832848" y="1389.6234946161596" /><node id="x4-y1" x="1341.1486547229297" y="478.14235688418705" /><node id="x4-y2" x="1341.1486547229297" y="672.7446268881968" /><node id="x4-y3" x="1341.1486547229297" y="1078.1552864331418" /></nodes>