<types><type id="default" numLanes="1" speed="30" /></types>