<connections><connection from="edge_x0-y1_x1-y1" to="edge_x1-y1_x2-y1" /><connection from="edge_x0-y1_x1-y1" to="edge_x1-y1_x1-y2" /><connection from="edge_x0-y1_x1-y1" to="edge_x1-y1_x1-y0" /><connection from="edge_x0-y2_x1-y2" to="edge_x1-y2_x2-y2" /><connection from="edge_x0-y2_x1-y2" to="edge_x1-y2_x1-y3" /><connection from="edge_x0-y2_x1-y2" to="edge_x1-y2_x1-y1" /><connection from="edge_x0-y3_x1-y3" to="edge_x1-y3_x2-y3" /><connection from="edge_x0-y3_x1-y3" to="edge_x1-y3_x1-y4" /><connection from="edge_x0-y3_x1-y3" to="edge_x1-y3_x1-y2" /><connection from="edge_x1-y0_x1-y1" to="edge_x1-y1_x1-y2" /><connection from="edge_x1-y0_x1-y1" to="edge_x1-y1_x2-y1" /><connection from="edge_x1-y0_x1-y1" to="edge_x1-y1_x0-y1" /><connection from="edge_x1-y1_x2-y1" to="edge_x2-y1_x3-y1" /><connection from="edge_x1-y1_x2-y1" to="edge_x2-y1_x2-y2" /><connection from="edge_x1-y1_x2-y1" to="edge_x2-y1_x2-y0" /><connection from="edge_x1-y1_x1-y2" to="edge_x1-y2_x1-y3" /><connection from="edge_x1-y1_x1-y2" to="edge_x1-y2_x2-y2" /><connection from="edge_x1-y1_x1-y2" to="edge_x1-y2_x0-y2" /><connection from="edge_x1-y2_x2-y2" to="edge_x2-y2_x3-y2" /><connection from="edge_x1-y2_x2-y2" to="edge_x2-y2_x2-y3" /><connection from="edge_x1-y2_x2-y2" to="edge_x2-y2_x2-y1" /><connection from="edge_x1-y2_x1-y3" to="edge_x1-y3_x1-y4" /><connection from="edge_x1-y2_x1-y3" to="edge_x1-y3_x2-y3" /><connection from="edge_x1-y2_x1-y3" to="edge_x1-y3_x0-y3" /><connection from="edge_x1-y2_x1-y1" to="edge_x1-y1_x1-y0" /><connection from="edge_x1-y2_x1-y1" to="edge_x1-y1_x2-y1" /><connection from="edge_x1-y2_x1-y1" to="edge_x1-y1_x0-y1" /><connection from="edge_x1-y3_x2-y3" to="edge_x2-y3_x3-y3" /><connection from="edge_x1-y3_x2-y3" to="edge_x2-y3_x2-y4" /><connection from="edge_x1-y3_x2-y3" to="edge_x2-y3_x2-y2" /><connection from="edge_x1-y3_x1-y2" to="edge_x1-y2_x1-y1" /><connection from="edge_x1-y3_x1-y2" to="edge_x1-y2_x2-y2" /><connection from="edge_x1-y3_x1-y2" to="edge_x1-y2_x0-y2" /><connection from="edge_x1-y4_x1-y3" to="edge_x1-y3_x1-y2" /><connection from="edge_x1-y4_x1-y3" to="edge_x1-y3_x2-y3" /><connection from="edge_x1-y4_x1-y3" to="edge_x1-y3_x0-y3" /><connection from="edge_x2-y0_x2-y1" to="edge_x2-y1_x2-y2" /><connection from="edge_x2-y0_x2-y1" to="edge_x2-y1_x3-y1" /><connection from="edge_x2-y0_x2-y1" to="edge_x2-y1_x1-y1" /><connection from="edge_x2-y1_x3-y1" to="edge_x3-y1_x4-y1" /><connection from="edge_x2-y1_x3-y1" to="edge_x3-y1_x3-y2" /><connection from="edge_x2-y1_x3-y1" to="edge_x3-y1_x3-y0" /><connection from="edge_x2-y1_x1-y1" to="edge_x1-y1_x0-y1" /><connection from="edge_x2-y1_x1-y1" to="edge_x1-y1_x1-y2" /><connection from="edge_x2-y1_x1-y1" to="edge_x1-y1_x1-y0" /><connection from="edge_x2-y1_x2-y2" to="edge_x2-y2_x2-y3" /><connection from="edge_x2-y1_x2-y2" to="edge_x2-y2_x3-y2" /><connection from="edge_x2-y1_x2-y2" to="edge_x2-y2_x1-y2" /><connection from="edge_x2-y2_x3-y2" to="edge_x3-y2_x4-y2" /><connection from="edge_x2-y2_x3-y2" to="edge_x3-y2_x3-y3" /><connection from="edge_x2-y2_x3-y2" to="edge_x3-y2_x3-y1" /><connection from="edge_x2-y2_x1-y2" to="edge_x1-y2_x0-y2" /><connection from="edge_x2-y2_x1-y2" to="edge_x1-y2_x1-y3" /><connection from="edge_x2-y2_x1-y2" to="edge_x1-y2_x1-y1" /><connection from="edge_x2-y2_x2-y3" to="edge_x2-y3_x2-y4" /><connection from="edge_x2-y2_x2-y3" to="edge_x2-y3_x3-y3" /><connection from="edge_x2-y2_x2-y3" to="edge_x2-y3_x1-y3" /><connection from="edge_x2-y2_x2-y1" to="edge_x2-y1_x2-y0" /><connection from="edge_x2-y2_x2-y1" to="edge_x2-y1_x3-y1" /><connection from="edge_x2-y2_x2-y1" to="edge_x2-y1_x1-y1" /><connection from="edge_x2-y3_x3-y3" to="edge_x3-y3_x4-y3" /><connection from="edge_x2-y3_x3-y3" to="edge_x3-y3_x3-y4" /><connection from="edge_x2-y3_x3-y3" to="edge_x3-y3_x3-y2" /><connection from="edge_x2-y3_x1-y3" to="edge_x1-y3_x0-y3" /><connection from="edge_x2-y3_x1-y3" to="edge_x1-y3_x1-y4" /><connection from="edge_x2-y3_x1-y3" to="edge_x1-y3_x1-y2" /><connection from="edge_x2-y3_x2-y2" to="edge_x2-y2_x2-y1" /><connection from="edge_x2-y3_x2-y2" to="edge_x2-y2_x3-y2" /><connection from="edge_x2-y3_x2-y2" to="edge_x2-y2_x1-y2" /><connection from="edge_x2-y4_x2-y3" to="edge_x2-y3_x2-y2" /><connection from="edge_x2-y4_x2-y3" to="edge_x2-y3_x3-y3" /><connection from="edge_x2-y4_x2-y3" to="edge_x2-y3_x1-y3" /><connection from="edge_x3-y0_x3-y1" to="edge_x3-y1_x3-y2" /><connection from="edge_x3-y0_x3-y1" to="edge_x3-y1_x4-y1" /><connection from="edge_x3-y0_x3-y1" to="edge_x3-y1_x2-y1" /><connection from="edge_x3-y1_x2-y1" to="edge_x2-y1_x1-y1" /><connection from="edge_x3-y1_x2-y1" to="edge_x2-y1_x2-y2" /><connection from="edge_x3-y1_x2-y1" to="edge_x2-y1_x2-y0" /><connection from="edge_x3-y1_x3-y2" to="edge_x3-y2_x3-y3" /><connection from="edge_x3-y1_x3-y2" to="edge_x3-y2_x4-y2" /><connection from="edge_x3-y1_x3-y2" to="edge_x3-y2_x2-y2" /><connection from="edge_x3-y2_x2-y2" to="edge_x2-y2_x1-y2" /><connection from="edge_x3-y2_x2-y2" to="edge_x2-y2_x2-y3" /><connection from="edge_x3-y2_x2-y2" to="edge_x2-y2_x2-y1" /><connection from="edge_x3-y2_x3-y3" to="edge_x3-y3_x3-y4" /><connection from="edge_x3-y2_x3-y3" to="edge_x3-y3_x4-y3" /><connection from="edge_x3-y2_x3-y3" to="edge_x3-y3_x2-y3" /><connection from="edge_x3-y2_x3-y1" to="edge_x3-y1_x3-y0" /><connection from="edge_x3-y2_x3-y1" to="edge_x3-y1_x4-y1" /><connection from="edge_x3-y2_x3-y1" to="edge_x3-y1_x2-y1" /><connection from="edge_x3-y3_x2-y3" to="edge_x2-y3_x1-y3" /><connection from="edge_x3-y3_x2-y3" to="edge_x2-y3_x2-y4" /><connection from="edge_x3-y3_x2-y3" to="edge_x2-y3_x2-y2" /><connection from="edge_x3-y3_x3-y2" to="edge_x3-y2_x3-y1" /><connection from="edge_x3-y3_x3-y2" to="edge_x3-y2_x4-y2" /><connection from="edge_x3-y3_x3-y2" to="edge_x3-y2_x2-y2" /><connection from="edge_x3-y4_x3-y3" to="edge_x3-y3_x3-y2" /><connection from="edge_x3-y4_x3-y3" to="edge_x3-y3_x4-y3" /><connection from="edge_x3-y4_x3-y3" to="edge_x3-y3_x2-y3" /><connection from="edge_x4-y1_x3-y1" to="edge_x3-y1_x2-y1" /><connection from="edge_x4-y1_x3-y1" to="edge_x3-y1_x3-y2" /><connection from="edge_x4-y1_x3-y1" to="edge_x3-y1_x3-y0" /><connection from="edge_x4-y2_x3-y2" to="edge_x3-y2_x2-y2" /><connection from="edge_x4-y2_x3-y2" to="edge_x3-y2_x3-y3" /><connection from="edge_x4-y2_x3-y2" to="edge_x3-y2_x3-y1" /><connection from="edge_x4-y3_x3-y3" to="edge_x3-y3_x2-y3" /><connection from="edge_x4-y3_x3-y3" to="edge_x3-y3_x3-y4" /><connection from="edge_x4-y3_x3-y3" to="edge_x3-y3_x3-y2" /></connections>